     518
 i =    20596, time =    10298.000, E =    -13585.0730291936
 Ti         4.4235389727        0.5722031676       10.1935792761
 Ti         4.4223769727        3.5399161676       10.2094022760
 Ti         4.4229549727        6.5076781676       10.2215432761
 Ti         4.4228369727        9.4752651676       10.2252662759
 Ti         4.4227999727       12.4428161676       10.2228502760
 Ti         4.4232229727       15.4103621676       10.1994072760
 Ti         1.1463649727        0.5712471676       13.4900432760
 Ti         1.1464899727        3.5387601676       13.4690402761
 Ti         1.1467449727        6.5063521676       13.4705562760
 Ti         1.1468149727        9.4739741676       13.4729912760
 Ti         1.1466399727       12.4416181676       13.4679262761
 Ti         1.1466359727       15.4093101676       13.4814262760
 Ti        10.9762619727        0.5700361676       10.2354032760
 Ti        10.9754699727        3.5377741676       10.2203552761
 Ti        10.9757519727        6.5054871676       10.2272202760
 Ti        10.9766729727        9.4730931676       10.2356142760
 Ti        10.9761089727       12.4407901676       10.2219782760
 Ti        10.9766099727       15.4083301676       10.2282152760
 Ti         7.6986329727        0.5706111676       13.4901662760
 Ti         7.6989659727        3.5382931676       13.5020752761
 Ti         7.6993999727        6.5058501676       13.5130622759
 Ti         7.6992549727        9.4735021676       13.4980502761
 Ti         7.6992429727       12.4411001676       13.5063902761
 Ti         7.6989699727       15.4088081676       13.5131002759
 Ti        17.5295439727        0.5716801676       10.2162432761
 Ti        17.5288649727        3.5391631676       10.1892812761
 Ti        17.5289989727        6.5068551676       10.1999092760
 Ti        17.5285309727        9.4745161675       10.2105842760
 Ti        17.5286039727       12.4421601676       10.1889572760
 Ti        17.5290769727       15.4099011676       10.2012372760
 Ti        14.2522949727        0.5710931676       13.5027762760
 Ti        14.2525929727        3.5385651676       13.5108362761
 Ti        14.2527959727        6.5062511676       13.4872882760
 Ti        14.2528949727        9.4744191676       13.4786912761
 Ti        14.2527579727       12.4419951676       13.5084712761
 Ti        14.2524479727       15.4095701676       13.5055772760
 Ti         1.1464949727        2.0629261676       10.2059692761
 Ti         1.1465689727        5.0306221676       10.1888422761
 Ti         1.1468119727        7.9983471676       10.1932492759
 Ti         1.1461299727       10.9660051676       10.1919922761
 Ti         1.1467289727       13.9336381676       10.1946722760
 Ti         1.1469849727       16.9012951676       10.2119142761
 Ti         7.6993639727        2.0628521676       10.2127342761
 Ti         7.6991359727        5.0303091676       10.2312932761
 Ti         7.6999229727        7.9981961676       10.2306512760
 Ti         7.6997299727       10.9657651676       10.2215272760
 Ti         7.6994919727       13.9333501676       10.2341632761
 Ti         7.7002279727       16.9010051675       10.2262992761
 Ti         4.4228769727        2.0631321676       13.4749232761
 Ti         4.4231789727        5.0308821676       13.4939422761
 Ti         4.4233929727        7.9983671676       13.5035122760
 Ti         4.4230729727       10.9660701676       13.5044692760
 Ti         4.4233029727       13.9337741676       13.4902062760
 Ti         4.4229299727       16.9013961676       13.4693112761
 Ti        14.2527189727        2.0630481676       10.2302722760
 Ti        14.2524299727        5.0305491676       10.2248332760
 Ti        14.2528349727        7.9979791676       10.1995252759
 Ti        14.2527459727       10.9657551676       10.2115012760
 Ti        14.2527309727       13.9333231675       10.2340622759
 Ti        14.2532289727       16.9013411676       10.2271152761
 Ti        10.9758809727        2.0625811676       13.5071512760
 Ti        10.9762639727        5.0302661676       13.4972912761
 Ti        10.9763079727        7.9979121676       13.5098802761
 Ti        10.9761879727       10.9655541675       13.5083632761
 Ti        10.9760619727       13.9333041676       13.4994352760
 Ti        10.9757329727       16.9009201676       13.5103562759
 Ti        17.5292179727        2.0631671676       13.4840602760
 Ti        17.5293419727        5.0306881676       13.4668692761
 Ti        17.5295579727        7.9984561676       13.4845782761
 Ti        17.5294599727       10.9663101676       13.4797702761
 Ti        17.5294259727       13.9340641676       13.4676522761
 Ti        17.5291699727       16.9016201676       13.4884112760
  O         6.4150309727        0.4685311676       10.2152712761
  O         6.4152409727        3.4364481676       10.2151442760
  O         6.4151489727        6.4039821676       10.2173332760
  O         6.4152189727        9.3714391676       10.2179522761
  O         6.4151959727       12.3392961676       10.2173562761
  O         6.4152599727       15.3068621676       10.2168652760
  O         3.1388529727        0.4689221676       13.4856952759
  O         3.1387929727        3.4363971676       13.4851912761
  O         3.1389359727        6.4041981676       13.4873602760
  O         3.1389879727        9.3718901676       13.4893232760
  O         3.1389769727       12.3394241676       13.4896482761
  O         3.1390069727       15.3071581676       13.4879522760
  O        12.9688109727        0.4686641676       10.2179102759
  O        12.9688929727        3.4364801676       10.2179862760
  O        12.9687199727        6.4039721676       10.2170682760
  O        12.9686429727        9.3717151676       10.2146042759
  O        12.9688189727       12.3397051676       10.2153002761
  O        12.9686539727       15.3070581676       10.2177232761
  O         9.6922389727        0.4687081676       13.4965042759
  O         9.6921379727        3.4361871676       13.4964182761
  O         9.6922939727        6.4039601676       13.4962612761
  O         9.6924749727        9.3716601676       13.4968292761
  O         9.6923069727       12.3391631676       13.4968762760
  O         9.6923329727       15.3069691676       13.4964502761
  O        19.5213879727        0.4689391676       10.2072392760
  O        19.5216019727        3.4364841676       10.2060752761
  O        19.5217299727        6.4041111676       10.2049412759
  O        19.5217929727        9.3717911676       10.2052392760
  O        19.5216359727       12.3393861676       10.2042962760
  O        19.5216169727       15.3068421676       10.2051172759
  O        16.2450099727        0.4687231676       13.4878082761
  O        16.2450549727        3.4366341676       13.4873342761
  O        16.2449649727        6.4040571676       13.4850602760
  O        16.2447769727        9.3715651676       13.4855772760
  O        16.2447859727       12.3393141675       13.4861962759
  O        16.2449949727       15.3068831676       13.4860402761
  O         2.4290319727        0.4685201676       10.2071182760
  O         2.4291519727        3.4367161676       10.2073632761
  O         2.4291049727        6.4041021676       10.2071692760
  O         2.4292349727        9.3716991676       10.2076282761
  O         2.4290679727       12.3395011676       10.2072032759
  O         2.4291689727       15.3071071676       10.2064782760
  O         8.9815509727        0.4685271676       10.2177812760
  O         8.9816539727        3.4365871676       10.2166832761
  O         8.9815389727        6.4040281676       10.2181172761
  O         8.9815829727        9.3715961676       10.2181792761
  O         8.9815719727       12.3393971676       10.2175202761
  O         8.9814219727       15.3070651676       10.2185402760
  O         5.7055259727        0.4690691676       13.4876902761
  O         5.7056299727        3.4364071676       13.4882202760
  O         5.7056089727        6.4043021676       13.4905492759
  O         5.7055279727        9.3720121675       13.4920832761
  O         5.7055269727       12.3394911676       13.4926862760
  O         5.7056009727       15.3072031676       13.4907322761
  O        15.5351839727        0.4688781676       10.2148742760
  O        15.5352039727        3.4363791676       10.2146682760
  O        15.5351309727        6.4039581676       10.2136402761
  O        15.5353829727        9.3718991675       10.2116622760
  O        15.5352479727       12.3397331676       10.2121362760
  O        15.5350949727       15.3071761676       10.2142522760
  O        12.2583699727        0.4685521676       13.4962142760
  O        12.2583249727        3.4361411676       13.4959112761
  O        12.2585039727        6.4041001676       13.4943342760
  O        12.2585919727        9.3716801675       13.4946092760
  O        12.2585699727       12.3390741676       13.4953922760
  O        12.2584799727       15.3069051676       13.4953092761
  O        18.8117439727        0.4688711676       13.4857632760
  O        18.8116579727        3.4367041676       13.4845732761
  O        18.8114659727        6.4041031676       13.4831592760
  O        18.8115189727        9.3717471675       13.4843582760
  O        18.8114899727       12.3395511676       13.4837852761
  O        18.8115039727       15.3070331676       13.4837452761
  O         4.4122669727        1.9367331676        8.9166232759
  O         4.4125919727        4.9036511676        8.9214992760
  O         4.4127999727        7.8708991676        8.9288462760
  O         4.4128339727       10.8385161676        8.9324962761
  O         4.4128349727       13.8068141676        8.9309562761
  O         4.4125469727       16.7751571676        8.9208682760
  O         1.1351489727        1.9354561676       12.1933112760
  O         1.1349939727        4.9040621676       12.1892872761
  O         1.1351459727        7.8718691676       12.1889372761
  O         1.1352749727       10.8394361676       12.1892682760
  O         1.1351599727       13.8065931676       12.1879902760
  O         1.1349609727       16.7733981675       12.1906252761
  O        10.9648809727        1.9366271676        8.9446612760
  O        10.9648909727        4.9045331676        8.9415442760
  O        10.9647239727        7.8713261676        8.9418842761
  O        10.9646259727       10.8395001676        8.9441542761
  O        10.9646849727       13.8075981676        8.9419732761
  O        10.9648299727       16.7744801675        8.9426822761
  O         7.6892039727        1.9369441676       12.2145182760
  O         7.6890759727        4.9038881676       12.2168662761
  O         7.6890289727        7.8720161676       12.2208152761
  O         7.6889569727       10.8397041676       12.2180112760
  O         7.6889729727       13.8064691676       12.2189342760
  O         7.6890759727       16.7749831676       12.2204862760
  O        17.5169409727        1.9359371676        8.9195212760
  O        17.5168029727        4.9037271676        8.9128852761
  O        17.5168549727        7.8706891676        8.9133052760
  O        17.5169879727       10.8388711676        8.9161452760
  O        17.5168239727       13.8071591676        8.9123392761
  O        17.5169269727       16.7740411675        8.9149252760
  O        14.2405659727        1.9359821676       12.2163822761
  O        14.2406079727        4.9041911676       12.2177522760
  O        14.2406059727        7.8729301676       12.2098932761
  O        14.2405699727       10.8395981676       12.2046292761
  O        14.2406329727       13.8066181676       12.2144962760
  O        14.2406689727       16.7746131676       12.2167372761
  O         4.4109819727        1.9358421676       11.4896322761
  O         4.4110269727        4.9038481676       11.4958392760
  O         4.4107729727        7.8717711676       11.5027842760
  O         4.4106639727       10.8397801676       11.5056492761
  O         4.4107189727       13.8067261676       11.5045212760
  O         4.4109769727       16.7736781675       11.4947662761
  O         1.1352409727        1.9367901676       14.7666842761
  O         1.1352049727        4.9037051676       14.7608282760
  O         1.1350379727        7.8712561676       14.7604802761
  O         1.1349479727       10.8389041676       14.7609982761
  O         1.1350129727       13.8072851676       14.7591022761
  O         1.1352299727       16.7757151675       14.7626852761
  O        10.9640719727        1.9357311676       11.5145652760
  O        10.9642099727        4.9031081676       11.5123492760
  O        10.9643149727        7.8714821676       11.5125362760
  O        10.9642959727       10.8388851676       11.5141992759
  O        10.9642449727       13.8060571676       11.5126362760
  O        10.9641629727       16.7743231676       11.5131752760
  O         7.6872579727        1.9353811676       14.7867252760
  O         7.6872529727        4.9035561676       14.7883502760
  O         7.6872259727        7.8710601676       14.7912102761
  O         7.6873839727       10.8385861676       14.7892332760
  O         7.6873559727       13.8070471676       14.7898532761
  O         7.6871369727       16.7740961675       14.7909842760
  O        17.5187939727        1.9361551676       11.4935842760
  O        17.5187619727        4.9039001676       11.4846722759
  O        17.5187829727        7.8723341676       11.4853762760
  O        17.5187789727       10.8392461676       11.4894792761
  O        17.5188169727       13.8065391676       11.4839962761
  O        17.5187029727       16.7748921675       11.4876012761
  O        14.2416729727        1.9364401676       14.7879102761
  O        14.2415439727        4.9038131676       14.7888682760
  O        14.2418969727        7.8701961676       14.7829892761
  O        14.2421069727       10.8383621676       14.7790002761
  O        14.2417829727       13.8068711676       14.7864862761
  O        14.2416309727       16.7743331676       14.7882282760
 Ti         4.4588361495        0.5038212561       16.6257191346
 Ti         4.3401148158        3.5299884434       16.8051896859
 Ti         4.4874989428        6.3837851308       16.7888937638
 Ti         4.2952901180        9.3912454148       16.7070433219
 Ti         4.2733406077       12.2820472672       16.9172058131
 Ti         4.3563186732       15.2368384088       16.5966175146
 Ti         1.0557324641        0.4261781480       20.1012054665
 Ti         1.2731153764        3.5094630729       20.0203107520
 Ti         1.2333863552        6.4389363067       20.1180962188
 Ti         1.2459914425        9.4793889417       20.1663335016
 Ti         1.0984120983       12.4168765423       20.2053254269
 Ti         1.1828055442       15.3824885284       20.2658946494
 Ti        10.8249300012        0.4551588750       16.7920878768
 Ti        10.9034934530        3.4510602905       16.7571337849
 Ti        11.0144733873        6.5239082031       16.8264131866
 Ti        11.1467644381        9.4345959703       16.6341612163
 Ti        10.9806999600       12.3345004300       16.8448106026
 Ti        10.9108616734       15.3465292080       16.7025623266
 Ti         7.7391323196        0.4477031722       20.0603776634
 Ti         7.6970959688        3.5883518279       20.1565281134
 Ti         7.8169177958        6.5264117114       20.2108818359
 Ti         7.5072802599        9.3427797998       20.1691878050
 Ti         7.7579518702       12.2240107466       20.0611187091
 Ti         7.6988371838       15.3789735865       20.0441991722
 Ti        17.3277049502        0.6045970876       16.6954280113
 Ti        17.4935856720        3.5684741367       16.7772718424
 Ti        17.5854481523        6.5032024344       16.7466709822
 Ti        17.5627185090        9.4234201621       16.7925340003
 Ti        17.6083994618       12.3588198511       16.7569912769
 Ti        17.5006417552       15.3084551475       16.9012684226
 Ti        14.4003335478        0.4886753136       20.0955450324
 Ti        14.3368862517        3.6389907240       20.2672036101
 Ti        14.2457086888        6.4765106448       20.3271503767
 Ti        14.3090857389        9.3559332007       19.8904296821
 Ti        14.1690597859       12.3509221568       19.9843060948
 Ti        14.3498448794       15.4807049070       20.1278408340
 Ti         1.0437052674        1.9639489584       16.8110291474
 Ti         1.1561081809        4.9558880256       16.7852331320
 Ti         1.2040445504        7.8574216909       16.9073171763
 Ti         1.0975108301       10.8733973298       16.8198926646
 Ti         1.0894942433       13.9422516989       16.8946588929
 Ti         1.2177595705       16.9059709605       16.8676615179
 Ti         7.6190932674        1.9109700992       16.9589511792
 Ti         7.7071104025        4.9025018795       16.8414149423
 Ti         7.7257961782        7.8345275518       16.8050855901
 Ti         7.5492258359       10.7465202729       16.7398464594
 Ti         7.7117883878       13.6768534525       16.8667884743
 Ti         7.6089329919       16.6289078510       16.7964947686
 Ti         4.4749216519        1.8249545963       20.0672848009
 Ti         4.5094046383        4.9246898177       20.1685429829
 Ti         4.4805652591        7.9296878785       20.0731315479
 Ti         4.3251949133       10.9709653807       20.2099773010
 Ti         4.4677408499       13.9131115443       20.0597923599
 Ti         4.4870730098       16.8220113089       19.8296430461
 Ti        14.1622458874        1.9124258317       16.9311096241
 Ti        14.2460823690        4.8297541337       16.9290196289
 Ti        14.3798754907        7.8290109478       16.8278669383
 Ti        14.4076502505       10.9113236357       16.7872264677
 Ti        14.2796616476       13.8939619034       16.7717921250
 Ti        14.1089083877       16.7698823202       16.8316337288
 Ti        10.8421759731        2.0774604133       19.9838303711
 Ti        11.0463779472        4.9627665554       20.0156059426
 Ti        10.9298003399        8.0232620585       19.9786572397
 Ti        10.9542220557       10.8124861661       19.9896293792
 Ti        10.8588258047       13.9445494491       19.9433261798
 Ti        11.0878962634       16.8900609990       20.0366985771
 Ti        17.5516780933        2.0947935485       19.9388471238
 Ti        17.6347945382        4.9662248030       20.0253656488
 Ti        17.5394079911        7.9680760354       20.0556100891
 Ti        17.5403592140       10.8851639371       20.1103909459
 Ti        17.5231239537       13.8404144927       20.0028701060
 Ti        17.6570627793       16.8525142972       20.0105489661
  O         6.3557529825        0.4147578003       16.7805387289
  O         6.3781546944        3.5322066560       16.7446395650
  O         6.4576297212        6.3178649008       16.6855262712
  O         6.3265104309        9.3565296695       16.7630128633
  O         6.3424801635       12.2671513006       16.8478381821
  O         6.3168264187       15.3282991435       16.8909120671
  O         3.3327314261        0.3953537093       20.2269885124
  O         3.1398456306        3.4716252727       20.2032369061
  O         3.1487929435        6.3996533061       20.1890056818
  O         3.1388445671        9.3581923346       19.9687153449
  O         3.0322303379       12.4554227247       20.1918570046
  O         3.1194325920       15.3614531400       20.1858723253
  O        12.9424729989        0.4155741855       16.7498467752
  O        12.9046387796        3.4630445223       16.9195973670
  O        12.9501035153        6.4041263914       16.6169498623
  O        13.0078471716        9.3370092119       16.8926669247
  O        12.9781381080       12.3153581148       16.7680848829
  O        12.8779503739       15.3431791865       16.8112892033
  O         9.6744812464        0.4677379923       20.0085272463
  O         9.6639561954        3.5110100019       20.0385804417
  O         9.7159844338        6.3784886477       20.2100672707
  O         9.6588159390        9.3561918976       20.2396518835
  O         9.6609203377       12.4029038468       20.0797404078
  O         9.7340402686       15.3021513175       20.2093639649
  O        19.4943379787        0.4246830576       16.6489165861
  O        19.4605958162        3.5000645223       16.8527847551
  O        19.5021895350        6.4471702436       16.6700059375
  O        19.5494459427        9.4401822804       16.8109690100
  O        19.5656994293       12.3636222395       16.8200239152
  O        19.4378072991       15.3406841644       16.7781153304
  O        16.3757406299        0.6040238687       20.0309292956
  O        16.2483764415        3.4105589004       19.9780577305
  O        16.1627293138        6.3005513096       20.0867672456
  O        16.2479279248        9.3185527882       20.0570176515
  O        16.2624959083       12.2633242938       20.2731735698
  O        16.1595985959       15.3169315616       19.9047862391
  O         2.4487012961        0.4941148009       16.8564864889
  O         2.4077843742        3.4022607340       16.6049032220
  O         2.4601611470        6.4289907054       16.8368732134
  O         2.4609150965        9.2669583608       16.8111095502
  O         2.3637796828       12.3467862293       16.8217079549
  O         2.3964487798       15.2957013600       16.9078764836
  O         8.8799468140        0.4624028075       16.8191946658
  O         8.9285830333        3.3915471855       16.7861444375
  O         8.9362925958        6.4320611651       16.9630570285
  O         8.8715130627        9.2597069532       16.7094004196
  O         9.0315011214       12.3146284826       16.7914139961
  O         8.9077802707       15.3244235350       16.8023674289
  O         5.7188642966        0.4431632702       20.1972231885
  O         5.6444037084        3.4015851642       20.4168841636
  O         5.6301774591        6.4614639232       20.3214362666
  O         5.6346957770        9.4400706492       20.0705581895
  O         5.6185356551       12.4619964822       20.0191589862
  O         5.7208665067       15.4188124215       20.0365946371
  O        15.4465449412        0.4747353038       16.6943421082
  O        15.4800439311        3.4385497972       16.7309970646
  O        15.4320070014        6.3042421983       16.7592059563
  O        15.5753725446        9.3702091648       16.8578446529
  O        15.6102408041       12.3548632400       16.6836407986
  O        15.5130536116       15.3015155398       16.8769807507
  O        12.2240090934        0.5463912787       20.0968908155
  O        12.2438250626        3.4118891111       20.2759834036
  O        12.2156096365        6.3909427328       20.1996248789
  O        12.1599274828        9.3466721566       20.0480053365
  O        12.2410583688       12.2226516358       20.0187974775
  O        12.1964156704       15.4161446647       20.0969397476
  O        18.8101297102        0.5418738709       20.1084120774
  O        18.8808981718        3.5411726488       19.9345864286
  O        18.7720796223        6.4122640806       20.1278087879
  O        18.8196815239        9.2717586382       20.0554795910
  O        18.6866555999       12.3020257093       20.2468839470
  O        18.7541684862       15.2953517547       20.0428647749
  O         4.5447080345        1.9722561622       15.5454877882
  O         4.3443173302        4.9080064205       15.4422383166
  O         4.2723829717        7.8129926493       15.5297415224
  O         4.2239093995       10.8367964499       15.4751823974
  O         4.3693042237       13.7867575507       15.5414986914
  O         4.3762826927       16.7846272123       15.4519257738
  O         1.2101085884        1.9569351361       18.6786324755
  O         1.2481768933        4.9522887899       18.6939994342
  O         1.1775899347        7.9077011336       18.7686765251
  O         1.0775030623       10.8540825147       18.7795387218
  O         1.0731509226       13.8351769115       18.7830236615
  O         1.1353676338       16.9075441665       18.7819399737
  O        10.8776993601        1.9197375988       15.5600097011
  O        10.9012995104        4.9482898031       15.5345709138
  O        10.9735727760        7.9305491801       15.5009429275
  O        10.8818092996       10.8202747739       15.5008766276
  O        10.8959824885       13.7571517739       15.6201055956
  O        10.8032537680       16.8083537346       15.5361796315
  O         7.5091836247        1.9654194975       18.9042486814
  O         7.7487339089        4.9126797941       18.8457427672
  O         7.6248597946        7.7674291352       18.8083210686
  O         7.7399702382       10.8577086526       18.7443668690
  O         7.6059525650       13.8600203674       18.7507549299
  O         7.6716662915       16.8438244459       18.7281309408
  O        17.5241080406        2.0353521357       15.4951758975
  O        17.4856469041        4.9475512522       15.5695896675
  O        17.4872575349        8.0197006917       15.4952971512
  O        17.5897309697       10.8637146756       15.5838975835
  O        17.4416028224       13.7384764030       15.5220899232
  O        17.4690424382       16.7665903082       15.5362271256
  O        14.2225372675        2.0096690593       18.6876875651
  O        14.1728569589        4.9417688066       18.8865702774
  O        14.2567441728        7.8087756931       18.8241865173
  O        14.2559517650       10.8893995143       18.7647456226
  O        14.4159789416       13.7855427557       18.7412076136
  O        14.3327955044       16.8667966692       18.6628381727
  O         4.4961730211        1.9937344540       18.0730046682
  O         4.3923519115        4.8910285525       18.1293939106
  O         4.3887003405        7.7904809250       18.1947624820
  O         4.3281565700       10.7737724428       18.0562863452
  O         4.4262199903       13.7967104578       18.0721825869
  O         4.3942613907       16.7843265369       18.0000784504
  O         1.2128595839        1.9029497451       21.2655267805
  H         1.2080926280        1.8341753915       22.3105616165
  O         1.0786475351        4.9088376532       21.2343007277
  O         1.2660572370        7.8639325090       21.4410784008
  H         1.3139457185        7.6206066227       22.3839625197
  O         1.3400312435       10.8926789790       21.3401403029
  O         1.0645263373       13.9514227439       21.3843790719
  O         1.2037939832       16.8853177632       21.4007696607
  O        10.9349578660        1.9394755637       18.1607003688
  O        11.0169371820        4.9180428350       18.1382983242
  O        10.9085270575        7.8853275807       18.0509578054
  O        10.9354914663       10.8677884089       18.0743799541
  O        10.9876303551       13.8101043627       18.1183324920
  O        10.8414336382       16.7130147272       18.1018118629
  O         7.9079168512        2.0153558974       21.3816204874
  H         8.7930765387        1.8658560499       21.8528855135
  O         7.6415173692        5.0477438901       21.3443617276
  O         7.6743210867        8.0002360142       21.3691306091
  O         7.5368461190       10.8090718174       21.2786956864
  O         7.6866266907       13.8600873288       21.3071473225
  H         6.9076176564       13.8210347073       21.8612087302
  O         7.6560323925       16.8080296459       21.2278851971
  O        17.4449168373        1.9131170705       18.0463992475
  O        17.4679483309        4.9548999774       18.0315937325
  O        17.4508196393        7.8434933984       18.0676762516
  O        17.4238579779       10.8835087731       18.2097317779
  O        17.5687646447       13.8312224769       18.1563276979
  O        17.5110121820       16.7461695900       18.1763030379
  O        14.3232107544        2.0540226999       21.3731804265
  H        13.9850578011        1.8498718814       22.3241622390
  O        14.3078080659        4.9870742938       21.5326356353
  O        14.1864556702        8.0067200043       21.3047797146
  H        13.0966621998        9.4781765218       23.3614112196
  O        14.2385950451       10.8332708227       21.2934529529
  O        14.1326226044       13.9165115302       21.3371869798
  H        13.2942408771       13.8798177750       21.8706199447
  O        14.3709417666       16.9111980923       21.2841935144
  O         2.5117488737        4.9565235210       23.8551281952
  O         4.1615407358        4.7169257289       22.2974782937
  C         3.2398303339        5.3573411369       22.9320159664
  H         3.3076861718        6.4657470294       22.6399150082
  O        11.0153239020        5.1516196997       22.4207478404
  O        11.6507159467        3.4255446701       23.6583638145
  C        11.6973082654        4.6913846104       23.3335672936
  H        12.4785955490        5.3364153234       23.8737163924
  O        10.2250643382       15.4718613714       23.5528932997
  O        10.9002628611       17.1300488696       22.1199418123
  C        10.1729147879       16.6537929888       23.1186538560
  H         9.5580710415       17.5179402166       23.5310108738
  O        15.7816802644       11.1279788112       23.2295691654
  O        17.6926845330       10.7424878995       22.2056287975
  C        17.0059642273       11.2558344162       23.1693931272
  H        17.5790720935       11.6353918724       24.0501513521
  O        17.3709959052       14.2839147479       22.0041749665
  O        17.4806946548       16.5177132050       22.1312852608
  C        17.2963510828       15.3470992847       22.6448544492
  H        17.1157760326       15.3859630711       23.7640823215
  O        17.7146336227        2.2308129304       22.0791737088
  O        17.4129344636        4.4810960731       22.1046686696
  C        17.5542004923        3.3289816741       22.6661824548
  H        17.5121289473        3.3583128634       23.7922173554
  O         4.3765582959        8.4016166049       22.2000516870
  O         4.5305550561       10.6288030845       22.1759693563
  C         4.5173526550        9.5205061126       22.7662504703
  H         4.5700564090        9.5981934571       23.8633740927
  O         4.3635401510        2.1818715002       22.2154791154
  H         3.4886917509        2.0050192601       22.6276930528
  H         4.3549091311        3.2434129104       22.2497079609
  O        10.5695322615        1.8850172577       22.0781866894
  H        10.8295455021        0.9436195850       22.2156060786
  H        10.9407595262        2.5763936427       22.7936912251
  O        11.4398251964       13.7879451658       21.9776682628
  H        11.4473317751       12.8884468527       22.3381243673
  H        11.0235758890       14.4712853862       22.6507700919
  O        17.4533313658        7.9299568380       22.0578770888
  H        16.8585173598        7.2755086628       22.6526401078
  H        17.5903928225        8.8042160581       22.4652103555
  O         4.6445826444       13.9575135697       22.1832708004
  H         4.0233759902       13.3785815241       22.7498712585
  H         4.3341988533       14.9199832139       22.4824749831
  O         4.2450520580       16.6914662784       22.2753301280
  H         4.9815474130       17.2101914839       22.8290268363
  H         3.3323587045       16.9728206745       22.5403966636
  O        11.0946950230        7.8572811971       22.1569942976
  H        11.0452669996        6.8854671497       22.4147491180
  H        10.3032118597        8.2899977785       22.6046982034
  O        10.8960684443       10.9027882027       22.1054296024
  H        11.7695873118       10.8149512151       22.6967471218
  H        10.0517757705       10.8356064812       22.6144299950
  O         1.9172256577        2.0393819535       23.8453840825
  H         2.0083696775        1.5525242946       24.7355624795
  H         2.2501482108        2.9886919696       24.0327465120
  O         2.5772689776       13.0492528234       23.5118224439
  H         1.9601916921       13.3112863345       22.7441838786
  H         2.5331694272       12.0979609153       23.3999672923
  O         1.2117752265        7.2618700152       24.2135278482
  H         1.2350681450        6.3130796030       24.1701995740
  H         0.3512728334        7.6698062835       24.3606607219
  O        15.9176095371        6.4229747771       23.4760838972
  H        15.2095919533        6.4796943785       22.8136077650
  H        16.3110815957        5.5431419213       23.3049276262
  O         8.7630997016        8.3230034811       23.7119245136
  H         8.4232314263        7.6562898471       24.3104997666
  H         8.2517795053        8.1432563025       22.8317812043
  O         8.7157555205       10.9952260839       23.8626393841
  H         8.8932491825       10.0731807721       24.0835036840
  H         8.0667934623       10.9020320984       23.1513467651
  O         6.1176463976       17.9925192861       23.5321703445
  H         6.9054252906       17.7252299506       22.9451939798
  H         6.0514960509       18.8804779849       23.1754340181
  O        13.4546483806        1.5392898345       23.7629344261
  H        12.9143927932        2.3082817695       23.9368542181
  H        12.9137011097        0.7326738975       23.7400534867
  O        12.7648473884       10.2830285428       23.8652781448
  H        14.9582591002       10.8239214049       22.0536708529
  H        13.5873416243       10.7595857356       24.0205931522
